<routes>
            <vType accel="1.0" decel="4.5" id="standard_car" length="5.0" minGap="2.5" maxSpeed="25" sigma="0.5" />

            <route id="N_through" edges="N2TL TL2S"/>
            <route id="N_left" edges="N2TL TL2E"/>
            <route id="N_right" edges="N2TL TL2W"/>
            <route id="S_through" edges="S2TL TL2N"/>
            <route id="S_left" edges="S2TL TL2W"/>
            <route id="S_right" edges="S2TL TL2E"/>
            <route id="E_through" edges="E2TL TL2W"/>
            <route id="E_left" edges="E2TL TL2S"/>
            <route id="E_right" edges="E2TL TL2N"/>
            <route id="W_through" edges="W2TL TL2E"/>
            <route id="W_left" edges="W2TL TL2N"/>
            <route id="W_right" edges="W2TL TL2S"/>
    <vehicle id="W_through_9" type="standard_car" route="W_through" depart="1" departLane="random" departSpeed="10" />
    <vehicle id="N_through_10" type="standard_car" route="N_through" depart="2" departLane="random" departSpeed="10" />
    <vehicle id="S_through_11" type="standard_car" route="S_through" depart="2" departLane="random" departSpeed="10" />
    <vehicle id="S_through_12" type="standard_car" route="S_through" depart="2" departLane="random" departSpeed="10" />
    <vehicle id="E_through_13" type="standard_car" route="E_through" depart="4" departLane="random" departSpeed="10" />
    <vehicle id="S_through_14" type="standard_car" route="S_through" depart="5" departLane="random" departSpeed="10" />
    <vehicle id="E_through_15" type="standard_car" route="E_through" depart="5" departLane="random" departSpeed="10" />
    <vehicle id="S_left_16" type="standard_car" route="S_left" depart="6" departLane="random" departSpeed="10" />
    <vehicle id="E_through_17" type="standard_car" route="E_through" depart="6" departLane="random" departSpeed="10" />
    <vehicle id="W_through_18" type="standard_car" route="W_through" depart="6" departLane="random" departSpeed="10" />
    <vehicle id="N_through_19" type="standard_car" route="N_through" depart="7" departLane="random" departSpeed="10" />
    <vehicle id="E_through_20" type="standard_car" route="E_through" depart="7" departLane="random" departSpeed="10" />
    <vehicle id="E_left_21" type="standard_car" route="E_left" depart="7" departLane="random" departSpeed="10" />
    <vehicle id="N_through_22" type="standard_car" route="N_through" depart="8" departLane="random" departSpeed="10" />
    <vehicle id="N_through_23" type="standard_car" route="N_through" depart="9" departLane="random" departSpeed="10" />
    <vehicle id="S_through_24" type="standard_car" route="S_through" depart="9" departLane="random" departSpeed="10" />
    <vehicle id="E_left_25" type="standard_car" route="E_left" depart="9" departLane="random" departSpeed="10" />
    <vehicle id="N_through_26" type="standard_car" route="N_through" depart="10" departLane="random" departSpeed="10" />
    <vehicle id="E_through_27" type="standard_car" route="E_through" depart="10" departLane="random" departSpeed="10" />
    <vehicle id="W_through_28" type="standard_car" route="W_through" depart="10" departLane="random" departSpeed="10" />
    <vehicle id="N_through_29" type="standard_car" route="N_through" depart="11" departLane="random" departSpeed="10" />
    <vehicle id="S_through_30" type="standard_car" route="S_through" depart="11" departLane="random" departSpeed="10" />
    <vehicle id="E_through_31" type="standard_car" route="E_through" depart="11" departLane="random" departSpeed="10" />
    <vehicle id="E_through_32" type="standard_car" route="E_through" depart="11" departLane="random" departSpeed="10" />
    <vehicle id="W_through_33" type="standard_car" route="W_through" depart="11" departLane="random" departSpeed="10" />
    <vehicle id="W_through_34" type="standard_car" route="W_through" depart="11" departLane="random" departSpeed="10" />
    <vehicle id="N_through_35" type="standard_car" route="N_through" depart="12" departLane="random" departSpeed="10" />
    <vehicle id="W_through_36" type="standard_car" route="W_through" depart="12" departLane="random" departSpeed="10" />
    <vehicle id="W_through_37" type="standard_car" route="W_through" depart="12" departLane="random" departSpeed="10" />
    <vehicle id="N_through_38" type="standard_car" route="N_through" depart="13" departLane="random" departSpeed="10" />
    <vehicle id="E_through_39" type="standard_car" route="E_through" depart="13" departLane="random" departSpeed="10" />
    <vehicle id="N_through_40" type="standard_car" route="N_through" depart="16" departLane="random" departSpeed="10" />
    <vehicle id="W_through_41" type="standard_car" route="W_through" depart="16" departLane="random" departSpeed="10" />
    <vehicle id="W_through_42" type="standard_car" route="W_through" depart="17" departLane="random" departSpeed="10" />
    <vehicle id="N_through_43" type="standard_car" route="N_through" depart="18" departLane="random" departSpeed="10" />
    <vehicle id="E_through_44" type="standard_car" route="E_through" depart="18" departLane="random" departSpeed="10" />
    <vehicle id="N_through_45" type="standard_car" route="N_through" depart="19" departLane="random" departSpeed="10" />
    <vehicle id="S_through_46" type="standard_car" route="S_through" depart="19" departLane="random" departSpeed="10" />
    <vehicle id="S_through_47" type="standard_car" route="S_through" depart="20" departLane="random" departSpeed="10" />
    <vehicle id="N_through_48" type="standard_car" route="N_through" depart="21" departLane="random" departSpeed="10" />
    <vehicle id="E_through_49" type="standard_car" route="E_through" depart="21" departLane="random" departSpeed="10" />
    <vehicle id="E_left_50" type="standard_car" route="E_left" depart="21" departLane="random" departSpeed="10" />
    <vehicle id="E_through_51" type="standard_car" route="E_through" depart="23" departLane="random" departSpeed="10" />
    <vehicle id="W_through_52" type="standard_car" route="W_through" depart="23" departLane="random" departSpeed="10" />
    <vehicle id="W_through_53" type="standard_car" route="W_through" depart="23" departLane="random" departSpeed="10" />
    <vehicle id="W_right_54" type="standard_car" route="W_right" depart="23" departLane="random" departSpeed="10" />
    <vehicle id="S_through_55" type="standard_car" route="S_through" depart="24" departLane="random" departSpeed="10" />
    <vehicle id="E_through_56" type="standard_car" route="E_through" depart="24" departLane="random" departSpeed="10" />
    <vehicle id="N_through_57" type="standard_car" route="N_through" depart="25" departLane="random" departSpeed="10" />
    <vehicle id="W_left_58" type="standard_car" route="W_left" depart="25" departLane="random" departSpeed="10" />
    <vehicle id="W_through_59" type="standard_car" route="W_through" depart="27" departLane="random" departSpeed="10" />
    <vehicle id="S_through_60" type="standard_car" route="S_through" depart="28" departLane="random" departSpeed="10" />
    <vehicle id="S_through_61" type="standard_car" route="S_through" depart="29" departLane="random" departSpeed="10" />
    <vehicle id="E_right_62" type="standard_car" route="E_right" depart="29" departLane="random" departSpeed="10" />
    <vehicle id="N_through_63" type="standard_car" route="N_through" depart="30" departLane="random" departSpeed="10" />
    <vehicle id="E_left_64" type="standard_car" route="E_left" depart="30" departLane="random" departSpeed="10" />
    <vehicle id="W_through_65" type="standard_car" route="W_through" depart="30" departLane="random" departSpeed="10" />
    <vehicle id="S_through_66" type="standard_car" route="S_through" depart="31" departLane="random" departSpeed="10" />
    <vehicle id="S_through_67" type="standard_car" route="S_through" depart="31" departLane="random" departSpeed="10" />
    <vehicle id="N_through_68" type="standard_car" route="N_through" depart="32" departLane="random" departSpeed="10" />
    <vehicle id="N_through_69" type="standard_car" route="N_through" depart="32" departLane="random" departSpeed="10" />
    <vehicle id="S_through_70" type="standard_car" route="S_through" depart="32" departLane="random" departSpeed="10" />
    <vehicle id="S_through_71" type="standard_car" route="S_through" depart="32" departLane="random" departSpeed="10" />
    <vehicle id="S_through_72" type="standard_car" route="S_through" depart="34" departLane="random" departSpeed="10" />
    <vehicle id="N_through_73" type="standard_car" route="N_through" depart="35" departLane="random" departSpeed="10" />
    <vehicle id="E_through_74" type="standard_car" route="E_through" depart="35" departLane="random" departSpeed="10" />
    <vehicle id="N_through_75" type="standard_car" route="N_through" depart="38" departLane="random" departSpeed="10" />
    <vehicle id="S_through_76" type="standard_car" route="S_through" depart="38" departLane="random" departSpeed="10" />
    <vehicle id="N_through_77" type="standard_car" route="N_through" depart="39" departLane="random" departSpeed="10" />
    <vehicle id="N_through_78" type="standard_car" route="N_through" depart="39" departLane="random" departSpeed="10" />
    <vehicle id="N_through_79" type="standard_car" route="N_through" depart="39" departLane="random" departSpeed="10" />
    <vehicle id="N_through_80" type="standard_car" route="N_through" depart="39" departLane="random" departSpeed="10" />
    <vehicle id="S_through_81" type="standard_car" route="S_through" depart="39" departLane="random" departSpeed="10" />
    <vehicle id="E_left_82" type="standard_car" route="E_left" depart="39" departLane="random" departSpeed="10" />
    <vehicle id="W_left_83" type="standard_car" route="W_left" depart="39" departLane="random" departSpeed="10" />
    <vehicle id="S_through_84" type="standard_car" route="S_through" depart="40" departLane="random" departSpeed="10" />
    <vehicle id="E_through_85" type="standard_car" route="E_through" depart="40" departLane="random" departSpeed="10" />
    <vehicle id="E_through_86" type="standard_car" route="E_through" depart="41" departLane="random" departSpeed="10" />
    <vehicle id="E_through_87" type="standard_car" route="E_through" depart="42" departLane="random" departSpeed="10" />
    <vehicle id="W_through_88" type="standard_car" route="W_through" depart="43" departLane="random" departSpeed="10" />
    <vehicle id="W_through_89" type="standard_car" route="W_through" depart="43" departLane="random" departSpeed="10" />
    <vehicle id="W_through_90" type="standard_car" route="W_through" depart="43" departLane="random" departSpeed="10" />
    <vehicle id="S_through_91" type="standard_car" route="S_through" depart="45" departLane="random" departSpeed="10" />
    <vehicle id="E_through_92" type="standard_car" route="E_through" depart="45" departLane="random" departSpeed="10" />
    <vehicle id="S_through_93" type="standard_car" route="S_through" depart="46" departLane="random" departSpeed="10" />
    <vehicle id="W_through_94" type="standard_car" route="W_through" depart="46" departLane="random" departSpeed="10" />
    <vehicle id="S_right_95" type="standard_car" route="S_right" depart="47" departLane="random" departSpeed="10" />
    <vehicle id="E_through_96" type="standard_car" route="E_through" depart="48" departLane="random" departSpeed="10" />
    <vehicle id="W_through_97" type="standard_car" route="W_through" depart="48" departLane="random" departSpeed="10" />
    <vehicle id="W_through_98" type="standard_car" route="W_through" depart="49" departLane="random" departSpeed="10" />
    <vehicle id="N_through_99" type="standard_car" route="N_through" depart="51" departLane="random" departSpeed="10" />
    <vehicle id="S_through_100" type="standard_car" route="S_through" depart="51" departLane="random" departSpeed="10" />
    <vehicle id="W_through_101" type="standard_car" route="W_through" depart="51" departLane="random" departSpeed="10" />
    <vehicle id="W_through_102" type="standard_car" route="W_through" depart="52" departLane="random" departSpeed="10" />
    <vehicle id="S_left_103" type="standard_car" route="S_left" depart="53" departLane="random" departSpeed="10" />
    <vehicle id="E_through_104" type="standard_car" route="E_through" depart="53" departLane="random" departSpeed="10" />
    <vehicle id="N_through_105" type="standard_car" route="N_through" depart="54" departLane="random" departSpeed="10" />
    <vehicle id="N_through_106" type="standard_car" route="N_through" depart="55" departLane="random" departSpeed="10" />
    <vehicle id="N_through_107" type="standard_car" route="N_through" depart="55" departLane="random" departSpeed="10" />
    <vehicle id="E_through_108" type="standard_car" route="E_through" depart="55" departLane="random" departSpeed="10" />
    <vehicle id="W_through_109" type="standard_car" route="W_through" depart="55" departLane="random" departSpeed="10" />
    <vehicle id="N_through_110" type="standard_car" route="N_through" depart="56" departLane="random" departSpeed="10" />
    <vehicle id="W_through_111" type="standard_car" route="W_through" depart="56" departLane="random" departSpeed="10" />
    <vehicle id="N_through_112" type="standard_car" route="N_through" depart="58" departLane="random" departSpeed="10" />
    <vehicle id="E_through_113" type="standard_car" route="E_through" depart="58" departLane="random" departSpeed="10" />
    <vehicle id="N_left_114" type="standard_car" route="N_left" depart="59" departLane="random" departSpeed="10" />
    <vehicle id="N_left_115" type="standard_car" route="N_left" depart="59" departLane="random" departSpeed="10" />
    <vehicle id="S_through_116" type="standard_car" route="S_through" depart="59" departLane="random" departSpeed="10" />
    <vehicle id="N_through_117" type="standard_car" route="N_through" depart="60" departLane="random" departSpeed="10" />
    <vehicle id="S_through_118" type="standard_car" route="S_through" depart="60" departLane="random" departSpeed="10" />
    <vehicle id="E_through_119" type="standard_car" route="E_through" depart="60" departLane="random" departSpeed="10" />
    <vehicle id="W_through_120" type="standard_car" route="W_through" depart="60" departLane="random" departSpeed="10" />
    <vehicle id="N_through_121" type="standard_car" route="N_through" depart="61" departLane="random" departSpeed="10" />
    <vehicle id="S_through_122" type="standard_car" route="S_through" depart="61" departLane="random" departSpeed="10" />
    <vehicle id="N_through_123" type="standard_car" route="N_through" depart="62" departLane="random" departSpeed="10" />
    <vehicle id="N_through_124" type="standard_car" route="N_through" depart="62" departLane="random" departSpeed="10" />
    <vehicle id="S_through_125" type="standard_car" route="S_through" depart="62" departLane="random" departSpeed="10" />
    <vehicle id="S_through_126" type="standard_car" route="S_through" depart="63" departLane="random" departSpeed="10" />
    <vehicle id="E_through_127" type="standard_car" route="E_through" depart="63" departLane="random" departSpeed="10" />
    <vehicle id="E_through_128" type="standard_car" route="E_through" depart="63" departLane="random" departSpeed="10" />
    <vehicle id="W_through_129" type="standard_car" route="W_through" depart="63" departLane="random" departSpeed="10" />
    <vehicle id="N_through_130" type="standard_car" route="N_through" depart="64" departLane="random" departSpeed="10" />
    <vehicle id="N_through_131" type="standard_car" route="N_through" depart="64" departLane="random" departSpeed="10" />
    <vehicle id="S_through_132" type="standard_car" route="S_through" depart="64" departLane="random" departSpeed="10" />
    <vehicle id="E_through_133" type="standard_car" route="E_through" depart="64" departLane="random" departSpeed="10" />
    <vehicle id="E_through_134" type="standard_car" route="E_through" depart="64" departLane="random" departSpeed="10" />
    <vehicle id="W_left_135" type="standard_car" route="W_left" depart="64" departLane="random" departSpeed="10" />
    <vehicle id="W_left_136" type="standard_car" route="W_left" depart="64" departLane="random" departSpeed="10" />
    <vehicle id="S_through_137" type="standard_car" route="S_through" depart="65" departLane="random" departSpeed="10" />
    <vehicle id="N_left_138" type="standard_car" route="N_left" depart="66" departLane="random" departSpeed="10" />
    <vehicle id="S_through_139" type="standard_car" route="S_through" depart="66" departLane="random" departSpeed="10" />
    <vehicle id="S_through_140" type="standard_car" route="S_through" depart="67" departLane="random" departSpeed="10" />
    <vehicle id="E_through_141" type="standard_car" route="E_through" depart="67" departLane="random" departSpeed="10" />
    <vehicle id="W_through_142" type="standard_car" route="W_through" depart="67" departLane="random" departSpeed="10" />
    <vehicle id="W_through_143" type="standard_car" route="W_through" depart="67" departLane="random" departSpeed="10" />
    <vehicle id="S_through_144" type="standard_car" route="S_through" depart="68" departLane="random" departSpeed="10" />
    <vehicle id="N_through_145" type="standard_car" route="N_through" depart="69" departLane="random" departSpeed="10" />
    <vehicle id="N_through_146" type="standard_car" route="N_through" depart="69" departLane="random" departSpeed="10" />
    <vehicle id="S_through_147" type="standard_car" route="S_through" depart="69" departLane="random" departSpeed="10" />
    <vehicle id="W_left_148" type="standard_car" route="W_left" depart="69" departLane="random" departSpeed="10" />
    <vehicle id="N_through_149" type="standard_car" route="N_through" depart="70" departLane="random" departSpeed="10" />
    <vehicle id="S_through_150" type="standard_car" route="S_through" depart="70" departLane="random" departSpeed="10" />
    <vehicle id="E_through_151" type="standard_car" route="E_through" depart="70" departLane="random" departSpeed="10" />
    <vehicle id="E_through_152" type="standard_car" route="E_through" depart="70" departLane="random" departSpeed="10" />
    <vehicle id="E_through_153" type="standard_car" route="E_through" depart="70" departLane="random" departSpeed="10" />
    <vehicle id="E_left_154" type="standard_car" route="E_left" depart="70" departLane="random" departSpeed="10" />
    <vehicle id="W_through_155" type="standard_car" route="W_through" depart="71" departLane="random" departSpeed="10" />
    <vehicle id="N_through_156" type="standard_car" route="N_through" depart="72" departLane="random" departSpeed="10" />
    <vehicle id="W_through_157" type="standard_car" route="W_through" depart="72" departLane="random" departSpeed="10" />
    <vehicle id="N_through_158" type="standard_car" route="N_through" depart="73" departLane="random" departSpeed="10" />
    <vehicle id="N_through_159" type="standard_car" route="N_through" depart="73" departLane="random" departSpeed="10" />
    <vehicle id="N_through_160" type="standard_car" route="N_through" depart="74" departLane="random" departSpeed="10" />
    <vehicle id="S_left_161" type="standard_car" route="S_left" depart="74" departLane="random" departSpeed="10" />
    <vehicle id="E_through_162" type="standard_car" route="E_through" depart="74" departLane="random" departSpeed="10" />
    <vehicle id="N_through_163" type="standard_car" route="N_through" depart="76" departLane="random" departSpeed="10" />
    <vehicle id="W_through_164" type="standard_car" route="W_through" depart="76" departLane="random" departSpeed="10" />
    <vehicle id="S_through_165" type="standard_car" route="S_through" depart="77" departLane="random" departSpeed="10" />
    <vehicle id="S_through_166" type="standard_car" route="S_through" depart="78" departLane="random" departSpeed="10" />
    <vehicle id="W_through_167" type="standard_car" route="W_through" depart="78" departLane="random" departSpeed="10" />
    <vehicle id="W_through_168" type="standard_car" route="W_through" depart="79" departLane="random" departSpeed="10" />
    <vehicle id="N_through_169" type="standard_car" route="N_through" depart="81" departLane="random" departSpeed="10" />
    <vehicle id="N_through_170" type="standard_car" route="N_through" depart="81" departLane="random" departSpeed="10" />
    <vehicle id="N_left_171" type="standard_car" route="N_left" depart="81" departLane="random" departSpeed="10" />
    <vehicle id="N_left_172" type="standard_car" route="N_left" depart="82" departLane="random" departSpeed="10" />
    <vehicle id="E_through_173" type="standard_car" route="E_through" depart="82" departLane="random" departSpeed="10" />
    <vehicle id="W_through_174" type="standard_car" route="W_through" depart="82" departLane="random" departSpeed="10" />
    <vehicle id="S_left_175" type="standard_car" route="S_left" depart="84" departLane="random" departSpeed="10" />
    <vehicle id="N_through_176" type="standard_car" route="N_through" depart="85" departLane="random" departSpeed="10" />
    <vehicle id="N_through_177" type="standard_car" route="N_through" depart="85" departLane="random" departSpeed="10" />
    <vehicle id="S_through_178" type="standard_car" route="S_through" depart="85" departLane="random" departSpeed="10" />
    <vehicle id="E_left_179" type="standard_car" route="E_left" depart="85" departLane="random" departSpeed="10" />
    <vehicle id="N_right_180" type="standard_car" route="N_right" depart="87" departLane="random" departSpeed="10" />
    <vehicle id="S_through_181" type="standard_car" route="S_through" depart="87" departLane="random" departSpeed="10" />
    <vehicle id="S_left_182" type="standard_car" route="S_left" depart="87" departLane="random" departSpeed="10" />
    <vehicle id="W_through_183" type="standard_car" route="W_through" depart="87" departLane="random" departSpeed="10" />
    <vehicle id="W_through_184" type="standard_car" route="W_through" depart="87" departLane="random" departSpeed="10" />
    <vehicle id="N_through_185" type="standard_car" route="N_through" depart="88" departLane="random" departSpeed="10" />
    <vehicle id="E_through_186" type="standard_car" route="E_through" depart="88" departLane="random" departSpeed="10" />
    <vehicle id="W_through_187" type="standard_car" route="W_through" depart="88" departLane="random" departSpeed="10" />
    <vehicle id="S_through_188" type="standard_car" route="S_through" depart="89" departLane="random" departSpeed="10" />
    <vehicle id="E_through_189" type="standard_car" route="E_through" depart="89" departLane="random" departSpeed="10" />
    <vehicle id="S_through_190" type="standard_car" route="S_through" depart="90" departLane="random" departSpeed="10" />
    <vehicle id="E_through_191" type="standard_car" route="E_through" depart="90" departLane="random" departSpeed="10" />
    <vehicle id="N_left_192" type="standard_car" route="N_left" depart="91" departLane="random" departSpeed="10" />
    <vehicle id="E_through_193" type="standard_car" route="E_through" depart="91" departLane="random" departSpeed="10" />
    <vehicle id="E_through_194" type="standard_car" route="E_through" depart="92" departLane="random" departSpeed="10" />
    <vehicle id="W_through_195" type="standard_car" route="W_through" depart="92" departLane="random" departSpeed="10" />
    <vehicle id="S_through_196" type="standard_car" route="S_through" depart="93" departLane="random" departSpeed="10" />
    <vehicle id="S_through_197" type="standard_car" route="S_through" depart="93" departLane="random" departSpeed="10" />
    <vehicle id="S_through_198" type="standard_car" route="S_through" depart="93" departLane="random" departSpeed="10" />
    <vehicle id="E_through_199" type="standard_car" route="E_through" depart="93" departLane="random" departSpeed="10" />
    <vehicle id="S_through_200" type="standard_car" route="S_through" depart="94" departLane="random" departSpeed="10" />
    <vehicle id="S_left_201" type="standard_car" route="S_left" depart="94" departLane="random" departSpeed="10" />
    <vehicle id="E_left_202" type="standard_car" route="E_left" depart="94" departLane="random" departSpeed="10" />
    <vehicle id="W_left_203" type="standard_car" route="W_left" depart="94" departLane="random" departSpeed="10" />
    <vehicle id="S_through_204" type="standard_car" route="S_through" depart="95" departLane="random" departSpeed="10" />
    <vehicle id="N_through_205" type="standard_car" route="N_through" depart="96" departLane="random" departSpeed="10" />
    <vehicle id="N_through_206" type="standard_car" route="N_through" depart="97" departLane="random" departSpeed="10" />
    <vehicle id="N_through_207" type="standard_car" route="N_through" depart="97" departLane="random" departSpeed="10" />
    <vehicle id="E_through_208" type="standard_car" route="E_through" depart="97" departLane="random" departSpeed="10" />
    <vehicle id="S_through_209" type="standard_car" route="S_through" depart="98" departLane="random" departSpeed="10" />
    <vehicle id="E_through_210" type="standard_car" route="E_through" depart="98" departLane="random" departSpeed="10" />
    <vehicle id="E_left_211" type="standard_car" route="E_left" depart="101" departLane="random" departSpeed="10" />
    <vehicle id="W_through_212" type="standard_car" route="W_through" depart="102" departLane="random" departSpeed="10" />
    <vehicle id="W_through_213" type="standard_car" route="W_through" depart="102" departLane="random" departSpeed="10" />
    <vehicle id="E_through_214" type="standard_car" route="E_through" depart="103" departLane="random" departSpeed="10" />
    <vehicle id="S_through_215" type="standard_car" route="S_through" depart="104" departLane="random" departSpeed="10" />
    <vehicle id="W_through_216" type="standard_car" route="W_through" depart="106" departLane="random" departSpeed="10" />
    <vehicle id="N_through_217" type="standard_car" route="N_through" depart="107" departLane="random" departSpeed="10" />
    <vehicle id="S_left_218" type="standard_car" route="S_left" depart="107" departLane="random" departSpeed="10" />
    <vehicle id="N_through_219" type="standard_car" route="N_through" depart="108" departLane="random" departSpeed="10" />
    <vehicle id="S_through_220" type="standard_car" route="S_through" depart="108" departLane="random" departSpeed="10" />
    <vehicle id="S_through_221" type="standard_car" route="S_through" depart="108" departLane="random" departSpeed="10" />
    <vehicle id="S_through_222" type="standard_car" route="S_through" depart="108" departLane="random" departSpeed="10" />
    <vehicle id="E_through_223" type="standard_car" route="E_through" depart="108" departLane="random" departSpeed="10" />
    <vehicle id="S_through_224" type="standard_car" route="S_through" depart="109" departLane="random" departSpeed="10" />
    <vehicle id="N_through_225" type="standard_car" route="N_through" depart="111" departLane="random" departSpeed="10" />
    <vehicle id="S_through_226" type="standard_car" route="S_through" depart="111" departLane="random" departSpeed="10" />
    <vehicle id="S_through_227" type="standard_car" route="S_through" depart="112" departLane="random" departSpeed="10" />
    <vehicle id="N_through_228" type="standard_car" route="N_through" depart="113" departLane="random" departSpeed="10" />
    <vehicle id="N_through_229" type="standard_car" route="N_through" depart="116" departLane="random" departSpeed="10" />
    <vehicle id="S_through_230" type="standard_car" route="S_through" depart="116" departLane="random" departSpeed="10" />
    <vehicle id="E_through_231" type="standard_car" route="E_through" depart="116" departLane="random" departSpeed="10" />
    <vehicle id="W_through_232" type="standard_car" route="W_through" depart="116" departLane="random" departSpeed="10" />
    <vehicle id="N_through_233" type="standard_car" route="N_through" depart="118" departLane="random" departSpeed="10" />
    <vehicle id="N_through_234" type="standard_car" route="N_through" depart="118" departLane="random" departSpeed="10" />
    <vehicle id="W_through_235" type="standard_car" route="W_through" depart="118" departLane="random" departSpeed="10" />
    <vehicle id="N_through_236" type="standard_car" route="N_through" depart="119" departLane="random" departSpeed="10" />
    <vehicle id="E_through_237" type="standard_car" route="E_through" depart="119" departLane="random" departSpeed="10" />
    <vehicle id="N_through_238" type="standard_car" route="N_through" depart="120" departLane="random" departSpeed="10" />
    <vehicle id="S_through_239" type="standard_car" route="S_through" depart="120" departLane="random" departSpeed="10" />
    <vehicle id="W_through_240" type="standard_car" route="W_through" depart="120" departLane="random" departSpeed="10" />
    <vehicle id="N_through_241" type="standard_car" route="N_through" depart="121" departLane="random" departSpeed="10" />
    <vehicle id="E_through_242" type="standard_car" route="E_through" depart="121" departLane="random" departSpeed="10" />
    <vehicle id="N_through_243" type="standard_car" route="N_through" depart="122" departLane="random" departSpeed="10" />
    <vehicle id="E_through_244" type="standard_car" route="E_through" depart="122" departLane="random" departSpeed="10" />
    <vehicle id="S_through_245" type="standard_car" route="S_through" depart="123" departLane="random" departSpeed="10" />
    <vehicle id="S_left_246" type="standard_car" route="S_left" depart="123" departLane="random" departSpeed="10" />
    <vehicle id="N_through_247" type="standard_car" route="N_through" depart="124" departLane="random" departSpeed="10" />
    <vehicle id="N_through_248" type="standard_car" route="N_through" depart="125" departLane="random" departSpeed="10" />
    <vehicle id="W_through_249" type="standard_car" route="W_through" depart="125" departLane="random" departSpeed="10" />